/*--------------------------------*- C++ -*----------------------------------*\
| =========                 |                                                 |
| \\      /  F ield         | OpenFOAM: The Open Source CFD Toolbox           |
|  \\    /   O peration     | Version:  2.2.2                                 |
|   \\  /    A nd           | Web:      www.OpenFOAM.org                      |
|    \\/     M anipulation  |                                                 |
\*---------------------------------------------------------------------------*/
FoamFile
{
    version     2.0;
    format      ascii;
    class       dictionary;
    location    "constant";
    object      transportProperties;
}
// * * * * * * * * * * * * * * * * * * * * * * * * * * * * * * * * * * * * * //

sigma_a		 sigma_a [ 1 -3 -1 0 0 0 0 ] 0.7e-2;
sigma_h		 sigma_h [ 1 -3 -1 0 0 0 0 ] 2e-9;
sigma_o          sigma_o [ 1 -3 -1 0 0 0 0 ] 2e-3;



mu_a              mu_a [ 0 0 -1 0 0 0 0 ] 10e-5;
mu_h              mu_h [ 0 0 -1 0 0 0 0 ] 2e-4;
mu_o              mu_o [ 1 -3 -1 0 0 0 0 ] 8e-5;
mu_d		  mu_d [ 0 0 -1 0 0 0 0] 1e-7;

mu_eV  		  mu_eV [ 1 -3 -1 0 0 0 0 ] 1e-6;

rho_a              rho_a [ 0 0 -1 0 0 0 0 ] 10e-5;
rho_h              rho_h [ -1 3 -1 0 0 0 0 ] 2e-1;

Da              Da [ 0 2 -1 0 0 0 0 ] 0.5e-12;
Dh              Dh [ 0 2 -1 0 0 0 0 ] 1.5e-10;
Dd           Dd [ 0 2 -1 0 0 0 0 ] 1e-16;


aT              aT [ 1 -3 0 0 0 0 0 ] 0.003;

hl		hl [ 1 -3 0 0 0 0 0 ] 0.03;

Ta              Ta [ 0 0 0 0 0 0 0 ] 5.4e6;

n              n [ 0 0 0 0 0 0 0 ] 16;

r              r [ 0 0 0 0 0 0 0 ] 16;

m              m [ 0 0 0 0 0 0 0 ] 16;


eta              eta [ 0 0 -1 0 0 0 0 ] 10e-8;

y_max           y_max [ 0 1 0 0 0 0 0 ] 8.64e-3;

y_min           y_min [ 0 1 0 0 0 0 0 ] 6.15e-3;

y_ref           y_ref [ 0 1 0 0 0 0 0 ] 8e-3;


alpha           alpha [ 1 -3 -1 0 0 0 0 ] 1e-6;

Sd           Sd [ 1 -3 0 0 0 0 0 ] 1e-3;

beta           beta [ 0 0 0 0 0 0 0 ] 0;

tau_d           tau_d [ 0 0 1 0 0 0 0 ] 3600;



leV           leV [ 0 0 0 0 0 0 0 ] 1e-7;

leS           leS [ 0 0 0 0 0 0 0 ] 1;

teV           teV [ 0 0 0 0 0 0 0 ] 0;

DEpsilonHydOff           DEpsilonHydOff [ 0 0 0 0 0 0 0 ] 2e-5;
REpsilonHydOff		REpsilonHydOff [ 0 0 0 0 0 0 0 ] 1e-6;

So           So [ 0 0 0 0 0 0 0 ] 0.001;

p		p [1 -1 -2 0 0 0 0] 1e4;

a0               a0 [1 -3 0 0 0 0 0] 1e-2;
Em               Em [1 -1 -2 0 0 0 0] 1e5;
Eb               Eb [1 -1 -2 0 0 0 0] 2e6;

nu_m               nu_m [0 0 0 0 0 0 0] 0.4;
nu_b               nu_b [0 0 0 0 0 0 0] 0.3;

rho_m               rho_m [1 -3 0 0 0 0 0] 1e3;
rho_b               rho_b [1 -3 0 0 0 0 0] 2e3;


// ************************************************************************* //
